LTspice 24.0.12 for Windows
Circuit: * C:\Users\Tachi\Documents\BinauralMic\InputFilter.asc
Start Time: Sat Sep 14 11:46:02 2024
solver = Normal
Maximum thread count: 8
tnom = 27
temp = 27
method = modified trap
.OP point found by inspection.
Total elapsed time: 0.037 seconds.

