LTspice 24.0.12 for Windows
Circuit: * C:\Users\Tachi\Documents\BinauralMic\sim\Preamp2.asc
Start Time: Sun Sep 15 19:00:27 2024
solver = Normal
Maximum thread count: 8



Direct Newton iteration for .op point succeeded.
.step rpot=1



.step rpot=10



.step rpot=100



.step rpot=1000



.step rpot=10000



.step rpot=100000
tnom = 27
temp = 27
method = modified trap
.step rpot=1000000
Total elapsed time: 0.280 seconds.

