LTspice 24.0.12 for Windows
Circuit: * C:\Users\Tachi\Documents\BinauralMic\sim\Preamp2.asc
Start Time: Mon Sep 16 00:56:49 2024
solver = Normal
Maximum thread count: 8



Direct Newton iteration for .op point succeeded.
.step rpot=1



.step rpot=2001



.step rpot=4001



.step rpot=6001



.step rpot=8001



.step rpot=10001



.step rpot=12001



.step rpot=14001



.step rpot=16001



.step rpot=18001
tnom = 27
temp = 27
method = modified trap
.step rpot=20000
Total elapsed time: 0.999 seconds.

