LTspice 24.0.12 for Windows
Circuit: * C:\Users\Tachi\Documents\BinauralMic\sim\Preamp.asc
Start Time: Sat Sep 14 16:07:56 2024
solver = Normal
Maximum thread count: 8
tnom = 27
temp = 27
method = modified trap
Direct Newton iteration for .op point succeeded.
Total elapsed time: 0.097 seconds.

