LTspice 24.0.12 for Windows
Circuit: * C:\Users\Tachi\Documents\BinauralMic\sim\Preamp2.asc
Start Time: Sun Sep 15 18:22:07 2024
solver = Normal
Maximum thread count: 8



Direct Newton iteration for .op point succeeded.
.step esr=0
tnom = 27
temp = 27
method = modified trap
.step esr=4
Total elapsed time: 0.142 seconds.

